3
Properties=species:S:1:pos:R:3 Lattice="100 0 0 0 100 0 0 0 100" pbc="F F F"
O      2.09821000       0.92801900       1.89574000
H      1.30969000       1.64896000       1.48342000
H      1.84956000       0.10002900       1.20268000
3
Properties=species:S:1:pos:R:3 Lattice="100 0 0 0 100 0 0 0 100" pbc="F F F"
O      2.17346042  1.10841022  1.70798335
H      1.15970281  1.52033811  1.37013956
H      1.92429677  0.04825967  1.50371709
